5
energy: -1419.4939655443790798
Cl  -0.9923008504772600  -1.3948022428300899  -0.3787487582733400
C  0.0027277380035700  0.0022940536460100  0.1059696969991000
Cl  -0.7208162808162401  1.5336629412944500  -0.4494160699153600
Cl  1.6795107698136700  -0.1671629821186500  -0.4743603676131900
H  0.0308786234762600  0.0260082300082900  1.1965554988027900
