6
energy: -132.8063098108839881
C  -0.4887180038573500  -0.0039378114187100  -0.0016503402941700
C  0.9669540461282400  0.0077528787198600  0.0033049054329700
N  2.1291258720649200  0.0170944210522400  0.0072508322740000
H  -0.8609011997514300  -0.7085222827439800  -0.7579066431735300
H  -0.8700826955243300  -0.3099720539566800  0.9821063316829600
H  -0.8763780190600700  0.9975848483472600  -0.2331050859222400
