15
energy: -271.6572162325060162
C  2.2308941193267300  -0.0840008590066700  -0.0523619806458200
C  0.7229778813983400  -0.0279336138444600  -0.0330754049193400
C  -0.0418981816578700  -1.2018275520155399  0.0456412712728900
C  -1.4372003041254000  -1.1517768871810199  0.0937807670123000
C  -2.0971270713924501  0.0795574580833700  0.0617871543464500
C  -1.3491063885015000  1.2569801482627001  -0.0209430437580900
C  0.0459951516283100  1.2007062816151599  -0.0688155546166200
H  2.6576712968913099  0.7671465287508100  -0.6009607449688400
H  2.5926783429806202  -1.0102003096370500  -0.5201510202266300
H  2.6405702542199898  -0.0524404766358900  0.9703183164659300
H  0.4645126323571600  -2.1700268091006398  0.0669111342987800
H  -2.0109619143764901  -2.0785394067386900  0.1522695619922900
H  -3.1869056487440002  0.1210150031956300  0.0962405512935600
H  -1.8538204590888501  2.2243326293471601  -0.0527022502302500
H  0.6217202890841100  2.1270078649051398  -0.1379387573166300
