17
energy: -251.9932085555189758
C  0.6292202715261001  1.2332443906564099  -0.1068524144420700
C  -0.9014077849383800  1.1263047143834000  -0.0451961986737900
C  -1.3653938179645499  -0.2556176308363300  -0.5140028319401300
N  -0.7174776107217600  -1.2943038589928300  0.2936723712735200
C  0.7419912336553600  -1.2728270084643101  0.1502369833571900
C  1.2892989774033801  0.0686935701487400  0.6454547783530800
H  0.9666653654428899  2.1988120466735701  0.3011387615438100
H  0.9499064289350200  1.2082569898196400  -1.1638934314608500
H  -1.3700371233461099  1.9069245513586299  -0.6650733354492100
H  -1.2431026653540500  1.2798696792065101  0.9917649530730300
H  -1.1336925349325599  -0.3603713840249500  -1.6000220812656301
H  -2.4557499297661600  -0.3550696211833700  -0.4010694137166800
H  -1.0812199155574800  -2.2138171443897701  0.0393519063541100
H  1.0643858579708600  -1.4207528827401401  -0.9072766669507800
H  1.1627478456807800  -2.1020713050885198  0.7391763389377300
H  2.3830717845610798  0.0947440781605800  0.5181794206189900
H  1.0807936174055199  0.1579808153126700  1.7244108603876500
