18
energy: -235.9514804727929800
C  1.2743414586657300  0.7586718710658400  0.0458809577860100
C  1.2441862475970000  -0.7596923408420500  0.2758676846795000
C  0.0560240363804600  -1.4149287165376101  -0.4439865956483300
C  -1.2743245452911500  -0.7586370603085600  -0.0458712586909300
C  -1.2441918137048000  0.7596931971952500  -0.2759002973265700
C  -0.0560139128011000  1.4149499729915700  0.4439681851928100
H  2.1073942523754901  1.2132915544341101  0.6054550088477000
H  1.4702223843199600  0.9582784108231900  -1.0229829046175600
H  1.1653995820288701  -0.9602943481727300  1.3595432284779501
H  2.1906628355181299  -1.2152786394991799  -0.0565275904268800
H  0.0280451582204800  -2.4952563236901302  -0.2297814244221200
H  0.1954040226017900  -1.3166728719567100  -1.5356577616808700
H  -1.4701231070404499  -0.9582369323372401  1.0230177474884301
H  -2.1074180033241299  -1.2133844855233200  -0.6052839137432400
H  -1.1654152744564801  0.9602894291932200  -1.3595778018586999
H  -2.1906427231277199  1.2153230486069400  0.0565091087579300
H  -0.0280934999498600  2.4952632191547401  0.2297076706866700
H  -0.1954570980122400  1.3166210154026401  1.5356199564982700
