33
energy: -469.7085977581349994
C  -5.9370176786942803  0.7450060224972700  -0.5773559521301500
C  -4.7214602756281598  -0.1711156569180400  -0.4107823506966400
C  -3.3886589635412800  0.5861502886722399  -0.3987690353984300
C  -2.1645783787118300  -0.3215283594823500  -0.2348354559012000
C  -0.8326882413272000  0.4370770427794200  -0.2213447985519700
C  0.3912196337762100  -0.4712584983115300  -0.0577879297192300
C  1.7229757543703501  0.2874006202282700  -0.0456269016566400
C  2.9458276574773499  -0.6223099790111500  0.1206851246534800
C  4.2773855438070498  0.1381832658073600  0.1342242550091000
C  5.4882603298948798  -0.7802579804938300  0.2923841190852700
O  6.7324630401164800  -0.0723804635087500  0.3667405716824800
H  -5.9962708954824802  1.4792823771664201  0.2406851343940500
H  -5.8847046096059001  1.3071582764502800  -1.5224281461326099
H  -6.8767027552396103  0.1738007185023900  -0.5810685800449600
H  -4.7071388495829902  -0.9167921439878900  -1.2242479353131299
H  -4.8191997376631699  -0.7468446603443800  0.5257173885754700
H  -3.2910183369441799  1.1644684747998100  -1.3350554455714001
H  -3.4018581300367998  1.3315004874424601  0.4165350979562100
H  -2.2635936363645399  -0.9002764953414600  0.7008528415151000
H  -2.1516714466476898  -1.0658724300262901  -1.0508904202413301
H  -0.8453504709643200  1.1810097332946401  0.5949717473991700
H  -0.7337223044452100  1.0161437546912100  -1.1568238901611201
H  0.2927281234814200  -1.0492621149372900  0.8783360880156000
H  0.4034133202023900  -1.2160099384729599  -0.8734372687152300
H  1.8230480295379501  0.8638026163817800  -0.9825148112528600
H  1.7112465892972200  1.0328441296125599  0.7689783487169900
H  2.9562241893970800  -1.3687695380492699  -0.6932448916494300
H  2.8452398846150802  -1.1968435177453001  1.0584302976551501
H  4.3806944335258997  0.7113926962246000  -0.8057761318052400
H  4.2853597719676202  0.8758397791676300  0.9536647697310400
H  5.5081647659557396  -1.5243792982625299  -0.5281383737673400
H  5.4196652077758598  -1.3402840177530599  1.2373459890349701
H  6.8317184356797096  0.4331248089279400  -0.4585260732503100
