11
energy: -248.3762212665679669
C  -0.3837426486078400  1.1318186517487601  0.0677081052502900
C  -1.2909631488788300  0.0718323881470400  0.0307855893467300
C  -0.7913145462033599  -1.2312115344979100  -0.0483409591931100
N  0.5176587826013000  -1.5267788321804601  -0.0912893986380900
C  1.3768730465137700  -0.4957429942906200  -0.0549194408723200
C  0.9809590916414200  0.8424643576108700  0.0239629320641300
H  -0.7336522886525100  2.1637307793442599  0.1294113461446800
H  -2.3672373637133401  0.2474674374560900  0.0624721112465300
H  -1.4760568332209700  -2.0842455585646600  -0.0789789589679000
H  2.4391216491223200  -0.7561185216135700  -0.0909889586832400
H  1.7283542593980299  1.6367838268402000  0.0501776323022900
