32
energy: -394.4550951128779843
C  -5.2874347064018199  0.8588546014833200  0.6430868290197600
C  -4.2357493601976799  -0.2411821163623300  0.4735107274935700
C  -2.8386348303373499  0.3000137599546100  0.1485273455225200
C  -1.7787704558297199  -0.7934216487539500  -0.0241731527865000
C  -0.3825550991986700  -0.2540709402210000  -0.3567745169753800
C  0.6690174673477400  -1.3583043044957701  -0.5250104970522100
C  2.0628224724943802  -0.8667470845848100  -0.9459803983970400
C  2.7852160308541900  -0.0030194393596300  0.0955036314321200
C  4.2031379601563303  0.3988580648967900  -0.3276456216612400
C  4.9215172061038697  1.2700200053241300  0.7067157010458300
H  -6.2774487739551299  0.4399274541707200  0.8748280049404999
H  -5.0162939644523004  1.5456133008743500  1.4596570850698400
H  -5.3858671728751704  1.4596274427798801  -0.2741800991675700
H  -4.1836311123808203  -0.8473725180545399  1.3942370507957800
H  -4.5509113994011496  -0.9329704631508600  -0.3265278768753100
H  -2.8903513953719999  0.9077086438281700  -0.7726862369630300
H  -2.5226790488916802  0.9925567702906301  0.9492578413513800
H  -2.0986635836728702  -1.4884855403354100  -0.8210484961975800
H  -1.7246094306909401  -1.3974504839984401  0.8991603987534900
H  -0.0709003473312400  0.4464796772818700  0.4362793340923700
H  -0.4346620937130800  0.3415930610663800  -1.2860712845508300
H  0.3060199210468400  -2.0785740514767599  -1.2785027058563700
H  0.7543264807695300  -1.9265638044966300  0.4186677984640800
H  2.6928612595020001  -1.7438323925030601  -1.1741567927810601
H  1.9780760604254499  -0.3010974969860900  -1.8912238937950800
H  2.8341610327263500  -0.5531602993623900  1.0528147475316301
H  2.2007672336026700  0.9102433233603100  0.2998670022708000
H  4.1550008293206204  0.9348444308161700  -1.2911776139106399
H  4.7958834988658801  -0.5125190267757100  -0.5179398612130000
H  4.3746943134478400  2.2086825392796099  0.8851433405859500
H  5.0084996591775504  0.7499341423402600  1.6731013214603601
H  5.9371613488605304  1.5338143931702899  0.3776012864283800
