38
energy: -469.7369229715270080
C  0.9892800000000000  0.0757100000000000  -0.0274000000000000
C  2.5080000000000000  0.0686800000000000  -0.0372800000000000
C  3.0457500000000000  -0.7988000000000000  -1.1729700000000001
C  4.5720499999999999  -0.8074700000000000  -1.1862900000000001
C  5.0990799999999998  -1.6784399999999999  -2.3241000000000001
C  6.6246400000000003  -1.6915600000000000  -2.3412000000000002
C  7.1486000000000001  -2.5602800000000001  -3.4812099999999999
C  8.6740300000000001  -2.5718399999999999  -3.4978699999999998
C  9.2023399999999995  -3.4415800000000001  -4.6354600000000001
C  10.7288499999999996  -3.4495900000000002  -4.6493300000000000
C  11.2654200000000007  -4.3166700000000002  -5.7843499999999999
C  12.7846200000000003  -4.3233499999999996  -5.7963300000000002
H  0.6181700000000000  0.7002699999999999  0.7908400000000000
H  0.5945200000000000  -0.9361200000000000  0.1092000000000000
H  0.5943200000000000  0.4742400000000000  -0.9674500000000000
H  2.8755700000000002  -0.3079500000000000  0.9244300000000000
H  2.8753899999999999  1.0952200000000001  -0.1468000000000000
H  2.6722899999999998  -0.4226600000000000  -2.1330800000000001
H  2.6732000000000000  -1.8250299999999999  -1.0614699999999999
H  4.9494100000000003  -1.1845000000000001  -0.2281300000000000
H  4.9473900000000004  0.2166800000000000  -1.3021799999999999
H  4.7233999999999998  -1.3010699999999999  -3.2828700000000000
H  4.7236599999999997  -2.7027199999999998  -2.2098100000000001
H  7.0001800000000003  -2.0711300000000001  -1.3832599999999999
H  7.0014599999999998  -0.6679400000000000  -2.4544600000000001
H  6.7717900000000002  -2.1808900000000002  -4.4394499999999999
H  6.7728700000000002  -3.5844900000000002  -3.3673400000000000
H  9.0504999999999995  -2.9492699999999998  -2.5390899999999998
H  9.0488800000000005  -1.5472500000000000  -3.6125400000000001
H  8.8247900000000001  -3.0644800000000001  -5.5937799999999998
H  8.8277400000000004  -4.4661099999999996  -4.5209799999999998
H  11.1021500000000000  -3.8250299999999999  -3.6888000000000001
H  11.0994799999999998  -2.4234399999999998  -4.7610799999999998
H  10.8970199999999995  -3.9418099999999998  -6.7463400000000000
H  10.8992599999999999  -5.3440700000000003  -5.6738999999999997
H  13.1784700000000008  -3.3113600000000001  -5.9339300000000001
H  13.1550700000000003  -4.9482299999999997  -6.6141199999999998
H  13.1807099999999995  -4.7209700000000003  -4.8561100000000001
