26
energy: -315.8045256528949949
C  4.3325427291915704  0.0565410092312300  0.0148849076549800
C  2.9137144603273701  0.6286152648194701  -0.0528604140355000
C  1.8338216389801700  -0.4458611848758100  -0.2230468257911500
C  0.4087463096549500  0.1153741109051600  -0.2900268768682400
C  -0.6617054182562500  -0.9670780110874300  -0.4792240225884600
C  -2.0989404381207502  -0.4380614562461100  -0.6061068373680900
C  -2.6688695977399899  0.1916586950815000  0.6714784468192000
C  -4.1230382743869800  0.6466081931487500  0.5158818617279700
H  5.0838577332030104  0.8511555809635400  0.1313347630080900
H  4.5793635638067203  -0.5040249420119500  -0.8998793852781000
H  4.4432371138129998  -0.6340372993004700  0.8650445372837300
H  2.7062576306191199  1.2100043789082999  0.8619638140486600
H  2.8454702598321600  1.3461725231142900  -0.8886762191698000
H  1.9027618522201100  -1.1665587331613001  0.6115113978908800
H  2.0404531593566202  -1.0266602496729900  -1.1399399781663100
H  0.3417865340905800  0.8392107609379300  -1.1223496156692201
H  0.2064987293685200  0.6904507004093901  0.6294619973615700
H  -0.6114511517515900  -1.6810711636704900  0.3625217875148800
H  -0.4163187852092400  -1.5502244447593201  -1.3835324749185500
H  -2.7579861925705700  -1.2690795468766800  -0.9119754211573100
H  -2.1439790973049502  0.3006544864777300  -1.4265681980705001
H  -2.0503970887749601  1.0521414392689901  0.9748614318448300
H  -2.5974936232693402  -0.5401533451539600  1.4949742433143300
H  -4.7787048937465402  -0.1983848107360800  0.2548504536076100
H  -4.5085368342522596  1.0937420244308400  1.4437520905241401
H  -4.2210903190813598  1.3988660198551801  -0.2819245674432000
