44
energy: -1116.2640962410509928
O  -0.0296755097593700  -0.1192457494265500  -1.9250381430038701
P  -0.0052992653097400  -0.0300754655739600  -0.4462892316918300
O  -0.9776126859203200  -1.0328833126058501  0.3373007814401000
C  -1.0677233089046501  -2.4198184296715102  -0.1010009508059600
C  -2.3371551332222800  -3.0263213221054199  0.4728230016163600
C  -2.4972945005394802  -4.5030295428765097  0.0899782990543000
C  -3.7753272734693799  -5.1273378898332496  0.6566565385791900
O  1.4062577676772201  -0.3152672887267700  0.2545050110929500
C  2.6161111532933199  0.2463165934964400  -0.3326902642308100
C  3.8164474827731198  -0.4687141614690900  0.2644566681398800
C  5.1440319467325200  0.0699904453320300  -0.2829250054061600
C  6.3627803597121702  -0.6401896286518201  0.3127645463054100
O  -0.4093859780787000  1.3861831596141900  0.1827755265969900
C  -1.5514593426616801  2.1070210231110602  -0.3644465421934000
C  -1.4687443287621900  3.5548349935857400  0.0889025774581500
C  -2.6526230933792099  4.3891216623533102  -0.4160074879729900
C  -2.5810530186812199  5.8516596630060604  0.0313796516586800
H  -1.0696483344510901  -2.4454133052310900  -1.2018014593260000
H  -0.1747732866903700  -2.9546022222998700  0.2621338894299600
H  -3.2037745255785302  -2.4486191509033399  0.1116713513902600
H  -2.3208343020759798  -2.9218581070477301  1.5701549872252201
H  -1.6211295310914600  -5.0711027998388101  0.4461517938368200
H  -2.4966817317513899  -4.5987087241770901  -1.0089900441928401
H  -4.6703964474970103  -4.6029655157799603  0.2892654009091700
H  -3.8663801821758699  -6.1846012467769897  0.3694389089384100
H  -3.7891104504201998  -5.0768979469034798  1.7559241930792600
H  2.6442494964503398  1.3244337660381100  -0.1043077416955100
H  2.5714973217784300  0.1200584613438600  -1.4255433482320199
H  3.7896527003740701  -0.3600338651832500  1.3611715929485200
H  3.7318728668782000  -1.5468126077915600  0.0503219163013700
H  5.1572364394460504  -0.0349249511296600  -1.3809698208723600
H  5.2133532326731000  1.1521010238799800  -0.0790570400535100
H  6.3388373360322303  -1.7190711908089400  0.0970560219916800
H  6.3973679961987502  -0.5213502432199600  1.4063056655509301
H  7.3004881262053702  -0.2383790212221600  -0.0968848433298600
H  -1.5307054357601100  2.0247195519191301  -1.4622819070216599
H  -2.4724576584377602  1.6283745562017200  0.0069598101952900
H  -1.4306702475097199  3.5843678011557900  1.1903018352832599
H  -0.5221018072339400  3.9886784725369302  -0.2729496852067700
H  -2.6903599305367099  4.3425417455495801  -1.5175147854031601
H  -3.5957129944805302  3.9411789933559902  -0.0593131751892300
H  -3.4395487938759599  6.4275064239859496  -0.3427055099832800
H  -2.5767865069995000  5.9324854423085203  1.1289594303867800
H  -1.6657586209741699  6.3366499104815599  -0.3402715693742600
