92
energy: -1465.7392192831589455
C  55.9200000000000017  49.7000000000000028  46.2800000000000011
H  56.4699999999999989  50.0099999999999980  47.1799999999999997
C  52.0900000000000034  53.9399999999999977  47.3599999999999994
H  53.0300000000000011  54.4900000000000020  47.2500000000000000
H  51.2700000000000031  54.4799999999999969  46.8500000000000014
C  51.5900000000000034  54.0000000000000000  48.7700000000000031
H  50.5900000000000034  53.5600000000000023  48.7999999999999972
H  51.4200000000000017  55.0000000000000000  49.1899999999999977
C  52.0700000000000003  52.4699999999999989  46.7400000000000020
H  52.7700000000000031  51.7100000000000009  47.1000000000000014
H  51.1300000000000026  51.9900000000000020  47.0600000000000023
C  52.0099999999999980  52.3500000000000014  45.1899999999999977
H  51.3699999999999974  53.1300000000000026  44.7500000000000000
H  51.6199999999999974  51.3900000000000006  44.8400000000000034
C  53.4099999999999966  52.2899999999999991  44.6700000000000017
H  53.3500000000000014  52.1899999999999977  43.5799999999999983
H  53.8699999999999974  53.2400000000000020  44.9500000000000028
C  54.0499999999999972  49.9099999999999966  43.8900000000000006
H  53.0099999999999980  49.9600000000000009  43.5399999999999991
H  54.3900000000000006  48.8999999999999986  44.1599999999999966
H  54.7700000000000031  50.2500000000000000  43.1300000000000026
C  52.8699999999999974  48.2299999999999969  48.3200000000000003
H  52.5799999999999983  47.9600000000000009  49.3400000000000034
H  52.7500000000000000  47.1799999999999997  48.0000000000000000
C  51.6700000000000017  48.8900000000000006  47.6199999999999974
H  51.3400000000000034  49.7800000000000011  48.1799999999999997
H  51.8200000000000003  49.1400000000000006  46.5600000000000023
C  50.2800000000000011  48.0300000000000011  47.5799999999999983
H  49.9699999999999989  47.7800000000000011  48.6099999999999994
H  50.3800000000000026  47.0499999999999972  47.1099999999999994
C  49.1099999999999994  48.6899999999999977  46.8299999999999983
H  48.9699999999999989  49.6599999999999966  47.3200000000000003
H  49.4299999999999997  48.9699999999999989  45.8200000000000003
C  47.8900000000000006  47.6899999999999977  46.7400000000000020
H  48.2999999999999972  46.6700000000000017  46.6499999999999986
H  47.2299999999999969  48.0000000000000000  45.9200000000000017
C  54.4699999999999989  50.2100000000000009  48.8699999999999974
H  53.9200000000000017  50.1599999999999966  49.8200000000000003
H  54.2700000000000031  51.1599999999999966  48.3599999999999994
H  55.5399999999999991  50.1899999999999977  49.1199999999999974
C  56.8800000000000026  49.0300000000000011  45.3500000000000014
H  56.4099999999999966  48.7100000000000009  44.4099999999999966
H  57.5399999999999991  49.8299999999999983  44.9900000000000020
C  57.7199999999999989  47.8500000000000014  46.0399999999999991
H  58.2899999999999991  47.3900000000000006  45.2199999999999989
H  57.0200000000000031  47.1400000000000006  46.5099999999999980
C  59.4799999999999969  47.5600000000000023  47.7700000000000031
H  60.3200000000000003  48.1099999999999994  48.2100000000000009
H  59.7000000000000028  46.6899999999999977  47.1300000000000026
C  58.6199999999999974  47.0600000000000023  49.0000000000000000
H  58.9200000000000017  47.5300000000000011  49.9500000000000028
H  57.6099999999999994  47.4900000000000020  49.0499999999999972
C  58.6899999999999977  45.5399999999999991  49.3599999999999994
H  59.7500000000000000  45.3900000000000006  49.5799999999999983
H  58.3500000000000014  45.1199999999999974  48.3999999999999986
C  57.9500000000000028  45.0600000000000023  50.5499999999999972
H  58.0600000000000023  45.7000000000000028  51.4399999999999977
H  56.8500000000000014  45.1000000000000014  50.4600000000000009
C  58.3900000000000006  43.5600000000000023  50.9200000000000017
H  59.4500000000000028  43.3900000000000006  51.1199999999999974
H  58.1199999999999974  42.8900000000000006  50.1000000000000014
C  57.4299999999999997  43.0799999999999983  52.1700000000000017
H  56.3500000000000014  43.0799999999999983  51.9900000000000020
H  57.7299999999999969  42.0700000000000003  52.4799999999999969
H  57.5099999999999980  43.8500000000000014  52.9399999999999977
C  52.4900000000000020  53.2800000000000011  49.7500000000000000
H  52.3400000000000034  52.2199999999999989  49.4900000000000020
H  53.5300000000000011  53.4699999999999989  49.4699999999999989
C  52.3400000000000034  53.5099999999999980  51.3400000000000034
H  51.2599999999999980  53.6000000000000014  51.4900000000000020
H  52.8200000000000003  54.4399999999999977  51.6700000000000017
C  52.7800000000000011  52.2899999999999991  52.1599999999999966
H  52.7000000000000028  52.5600000000000023  53.2199999999999989
H  53.8400000000000034  52.0099999999999980  52.0700000000000003
H  52.0700000000000003  51.4600000000000009  52.1799999999999997
C  47.0799999999999983  47.8299999999999983  47.9699999999999989
H  47.4900000000000020  47.1300000000000026  48.7100000000000009
H  47.0000000000000000  48.8400000000000034  48.3900000000000006
C  45.7599999999999980  47.2700000000000031  47.8699999999999974
H  45.1700000000000017  47.8699999999999974  47.1799999999999997
H  45.1700000000000017  47.2599999999999980  48.7999999999999972
C  45.4500000000000028  45.7299999999999969  47.2199999999999989
H  44.3699999999999974  45.6499999999999986  47.0399999999999991
H  45.8800000000000026  44.9500000000000028  47.8500000000000014
H  45.9699999999999989  45.6599999999999966  46.2500000000000000
C  54.8800000000000026  48.7299999999999969  46.9299999999999997
O  54.6300000000000026  47.7100000000000009  46.2800000000000011
N  54.1199999999999974  49.0200000000000031  48.0300000000000011
N  54.2100000000000009  51.0099999999999980  44.8699999999999974
C  55.2500000000000000  51.0300000000000011  45.8500000000000014
O  55.5399999999999991  51.9299999999999997  46.5300000000000011
O  58.6300000000000026  48.4099999999999966  46.9600000000000009
